REMARK  4 active torsions:
REMARK  status: ('A' for Active; 'I' for Inactive)
REMARK    1  A    between atoms: CAD_6  and  OAX_7 
REMARK    2  A    between atoms: CAK_14  and  OAL_15 
REMARK    3  A    between atoms: CAN_18  and  OAO_19 
REMARK    4  A    between atoms: CAT_25  and  OAV_26 
ROOT
HETATM    1  OAU LIG     1      20.280  -8.420   0.040  1.00 20.00    -0.279 OA
HETATM    2  CAA LIG     1      19.050  -8.410   0.020  1.00 20.00     0.279 C 
HETATM    3  OAB LIG     1      17.820  -8.390   0.000  1.00 20.00     0.000 OA
HETATM    4  CAC LIG     1      17.090  -7.130   0.000  1.00 20.00     0.023 A 
HETATM    5  CAH LIG     1      15.670  -7.180   0.000  1.00 20.00    -0.001 A 
HETATM    6  CAD LIG     1      17.710  -5.850   0.000  1.00 20.00     0.077 A 
HETATM    7  CAE LIG     1      16.980  -4.660   0.000  1.00 20.00     0.038 A 
HETATM    8  CAF LIG     1      15.580  -4.710   0.000  1.00 20.00     0.015 A 
HETATM    9  CAG LIG     1      14.940  -5.960   0.000  1.00 20.00    -0.023 A 
HETATM   10  CAI LIG     1      13.540  -5.960   0.000  1.00 20.00     0.027 A 
HETATM   11  CAJ LIG     1      12.820  -7.170   0.000  1.00 20.00     0.009 A 
HETATM   12  CAK LIG     1      11.410  -7.140   0.000  1.00 20.00     0.079 A 
HETATM   13  CAM LIG     1      10.670  -8.330   0.000  1.00 20.00     0.074 A 
HETATM   14  CAN LIG     1      11.350  -9.550   0.000  1.00 20.00     0.069 A 
HETATM   15  CAP LIG     1      12.750  -9.590   0.000  1.00 20.00     0.049 A 
HETATM   16  CAQ LIG     1      13.540  -8.410   0.000  1.00 20.00    -0.009 A 
HETATM   17  CAR LIG     1      14.970  -8.410   0.000  1.00 20.00    -0.010 A 
HETATM   18  CAS LIG     1      15.720  -9.610   0.010  1.00 20.00     0.053 A 
HETATM   19  CAT LIG     1      17.110  -9.640   0.000  1.00 20.00     0.102 A 
ENDROOT
BRANCH  19  20
HETATM   20  OAV LIG     1      17.580 -10.940  -0.010  1.00 20.00    -0.353 OA
HETATM   21  CAW LIG     1      18.930 -11.430  -0.070  1.00 20.00     0.210 C 
ENDBRANCH  19  20
BRANCH   6  22
HETATM   22  OAX LIG     1      19.070  -5.720  -0.010  1.00 20.00    -0.360 OA
HETATM   23  HAZ LIG     1      19.490  -6.630   0.000  1.00 20.00     0.217 HD
ENDBRANCH   6  22
BRANCH  12  24
HETATM   24  OAL LIG     1      10.730  -5.950   0.000  1.00 20.00    -0.360 OA
HETATM   25  HAL LIG     1      11.380  -5.200   0.000  1.00 20.00     0.217 HD
ENDBRANCH  12  24
BRANCH  14  26
HETATM   26  OAO LIG     1      10.640 -10.720   0.000  1.00 20.00    -0.361 OA
HETATM   27  HAO LIG     1       9.660 -10.510   0.000  1.00 20.00     0.217 HD
ENDBRANCH  14  26
TORSDOF 4
